*SPEF "ieee 1481-1999"
*DESIGN "usb"
*DATE "11:11:11 Fri 11 11, 1111"
*VENDOR "OpenRCX"
*PROGRAM "Parallel Extraction"
*VERSION "1.0"
*DESIGN_FLOW "NAME_SCOPE LOCAL" "PIN_CAP NONE"
*DIVIDER /
*DELIMITER :
*BUS_DELIMITER []
*T_UNIT 1 NS
*C_UNIT 1 PF
*R_UNIT 1 OHM
*L_UNIT 1 HENRY

*NAME_MAP
*3 clk_48
*4 data_in[0]
*5 data_in[1]
*6 data_in[2]
*7 data_in[3]
*8 data_in[4]
*9 data_in[5]
*10 data_in[6]
*11 data_in[7]
*12 data_in_valid
*13 data_out[0]
*14 data_out[1]
*15 data_out[2]
*16 data_out[3]
*17 data_out[4]
*18 data_out[5]
*19 data_out[6]
*20 data_out[7]
*21 data_strobe
*22 data_toggle
*23 direction_in
*24 endpoint[0]
*25 endpoint[1]
*26 endpoint[2]
*27 endpoint[3]
*28 handshake[0]
*29 handshake[1]
*30 rst_n
*31 rx_j
*32 rx_se0
*33 setup
*34 success
*35 transaction_active
*36 tx_en
*37 tx_j
*38 tx_se0
*39 usb_address[0]
*40 usb_address[1]
*41 usb_address[2]
*42 usb_address[3]
*43 usb_address[4]
*44 usb_address[5]
*45 usb_address[6]
*46 usb_rst
*47 _0000_
*48 _0001_
*49 _0002_
*50 _0003_
*51 _0004_
*52 _0005_
*53 _0006_
*54 _0007_
*55 _0008_
*56 _0009_
*57 _0010_
*58 _0011_
*59 _0012_
*60 _0013_
*61 _0014_
*62 _0015_
*63 _0016_
*64 _0017_
*65 _0018_
*66 _0019_
*67 _0020_
*68 _0021_
*69 _0022_
*70 _0023_
*71 _0024_
*72 _0025_
*73 _0026_
*74 _0027_
*75 _0028_
*76 _0029_
*77 _0030_
*78 _0031_
*79 _0032_
*80 _0033_
*81 _0034_
*82 _0035_
*83 _0036_
*84 _0037_
*85 _0038_
*86 _0039_
*87 _0040_
*88 _0041_
*89 _0042_
*90 _0043_
*91 _0044_
*92 _0045_
*93 _0046_
*94 _0047_
*95 _0048_
*96 _0049_
*97 _0050_
*98 _0051_
*99 _0052_
*100 _0053_
*101 _0054_
*102 _0055_
*103 _0056_
*104 _0057_
*105 _0058_
*106 _0059_
*107 _0060_
*108 _0061_
*109 _0062_
*110 _0063_
*111 _0064_
*112 _0065_
*113 _0066_
*114 _0067_
*115 _0068_
*116 _0069_
*117 _0070_
*118 _0071_
*119 _0072_
*120 _0073_
*121 _0074_
*122 _0075_
*123 _0076_
*124 _0077_
*125 _0078_
*126 _0079_
*127 _0080_
*128 _0081_
*129 _0082_
*130 _0083_
*131 _0084_
*132 _0085_
*133 _0086_
*134 _0087_
*135 _0088_
*136 _0089_
*137 _0090_
*138 _0091_
*139 _0092_
*140 _0093_
*141 _0094_
*142 _0095_
*143 _0096_
*144 _0097_
*145 _0098_
*146 _0099_
*147 _0100_
*148 _0101_
*149 _0102_
*150 _0103_
*151 _0104_
*152 _0105_
*153 _0106_
*154 _0107_
*155 _0108_
*156 _0109_
*157 _0110_
*158 _0111_
*159 _0112_
*160 _0113_
*161 _0114_
*162 _0115_
*163 _0116_
*164 _0117_
*165 _0118_
*166 _0119_
*167 _0120_
*168 _0121_
*169 _0122_
*170 _0123_
*171 _0124_
*172 _0125_
*173 _0126_
*174 _0127_
*175 _0128_
*176 _0129_
*177 _0130_
*178 _0131_
*179 _0132_
*180 _0133_
*181 _0134_
*182 _0135_
*183 _0136_
*184 _0137_
*185 _0138_
*186 _0139_
*187 _0140_
*188 _0141_
*189 _0142_
*190 _0143_
*191 _0144_
*192 _0145_
*193 _0146_
*194 _0147_
*195 _0148_
*196 _0149_
*197 _0150_
*198 _0151_
*199 _0152_
*200 _0153_
*201 _0154_
*202 _0155_
*203 _0156_
*204 _0157_
*205 _0158_
*206 _0159_
*207 _0160_
*208 _0161_
*209 _0162_
*210 _0163_
*211 _0164_
*212 _0165_
*213 _0166_
*214 _0167_
*215 _0168_
*216 _0169_
*217 _0170_
*218 _0171_
*219 _0172_
*220 _0173_
*221 _0174_
*222 _0175_
*223 _0176_
*224 _0177_
*225 _0178_
*226 _0179_
*227 _0180_
*228 _0181_
*229 _0182_
*230 _0183_
*231 _0184_
*232 _0185_
*233 _0186_
*234 _0187_
*235 _0188_
*236 _0189_
*237 _0190_
*238 _0191_
*239 _0192_
*240 _0193_
*241 _0194_
*242 _0195_
*243 _0196_
*244 _0197_
*245 _0198_
*246 _0199_
*247 _0200_
*248 _0201_
*249 _0202_
*250 _0203_
*251 _0204_
*252 _0205_
*253 _0206_
*254 _0207_
*255 _0208_
*256 _0209_
*257 _0210_
*258 _0211_
*259 _0212_
*260 _0213_
*261 _0214_
*262 _0215_
*263 _0216_
*264 _0217_
*265 _0218_
*266 _0219_
*267 _0220_
*268 _0221_
*269 _0222_
*270 _0223_
*271 _0224_
*272 _0225_
*273 _0226_
*274 _0227_
*275 _0228_
*276 _0229_
*277 _0230_
*278 _0231_
*279 _0232_
*280 _0233_
*281 _0234_
*282 _0235_
*283 _0236_
*284 _0237_
*285 _0238_
*286 _0239_
*287 _0240_
*288 _0241_
*289 _0242_
*290 _0243_
*291 _0244_
*292 _0245_
*293 _0246_
*294 _0247_
*295 _0248_
*296 _0249_
*297 _0250_
*298 _0251_
*299 _0252_
*300 _0253_
*301 _0254_
*302 _0255_
*303 _0256_
*304 _0257_
*305 _0258_
*306 _0259_
*307 _0260_
*308 _0261_
*309 _0262_
*310 _0263_
*311 _0264_
*312 _0265_
*313 _0266_
*314 _0267_
*315 _0268_
*316 _0269_
*317 _0270_
*318 _0271_
*319 _0272_
*320 _0273_
*321 _0274_
*322 _0275_
*323 _0276_
*324 _0277_
*325 _0278_
*326 _0279_
*327 _0280_
*328 _0281_
*329 _0282_
*330 _0283_
*331 _0284_
*332 _0285_
*333 _0286_
*334 _0287_
*335 _0288_
*336 _0289_
*337 _0290_
*338 _0291_
*339 _0292_
*340 _0293_
*341 _0294_
*342 _0295_
*343 _0296_
*344 _0297_
*345 _0298_
*346 _0299_
*347 _0300_
*348 _0301_
*349 _0302_
*350 _0303_
*351 _0304_
*352 _0305_
*353 _0306_
*354 _0307_
*355 _0308_
*356 _0309_
*357 _0310_
*358 _0311_
*359 _0312_
*360 _0313_
*361 _0314_
*362 _0315_
*363 _0316_
*364 _0317_
*365 _0318_
*366 _0319_
*367 _0320_
*368 _0321_
*369 _0322_
*370 _0323_
*371 _0324_
*372 _0325_
*373 _0326_
*374 _0327_
*375 _0328_
*376 _0329_
*377 _0330_
*378 _0331_
*379 _0332_
*380 _0333_
*381 _0334_
*382 _0335_
*383 _0336_
*384 _0337_
*385 _0338_
*386 _0339_
*387 _0340_
*388 _0341_
*389 _0342_
*390 _0343_
*391 _0344_
*392 _0345_
*393 _0346_
*394 _0347_
*395 _0348_
*396 _0349_
*397 _0350_
*398 _0351_
*399 _0352_
*400 _0353_
*401 _0354_
*402 _0355_
*403 _0356_
*404 _0357_
*405 _0358_
*406 _0359_
*407 _0360_
*408 _0361_
*409 _0362_
*410 _0363_
*411 _0364_
*412 _0365_
*413 _0366_
*414 _0367_
*415 _0368_
*416 _0369_
*417 _0370_
*418 _0371_
*419 _0372_
*420 _0373_
*421 _0374_
*422 _0375_
*423 _0376_
*424 _0377_
*425 _0378_
*426 _0379_
*427 _0380_
*428 _0381_
*429 _0382_
*430 _0383_
*431 _0384_
*432 _0385_
*433 _0386_
*434 _0387_
*435 _0388_
*436 _0389_
*437 _0390_
*438 _0391_
*439 _0392_
*440 _0393_
*441 _0394_
*442 _0395_
*443 _0396_
*444 _0397_
*445 _0398_
*446 _0399_
*447 _0400_
*448 _0401_
*449 _0402_
*450 _0403_
*451 _0404_
*452 _0405_
*453 _0406_
*454 _0407_
*455 _0408_
*456 _0409_
*457 _0410_
*458 _0411_
*459 _0412_
*460 _0413_
*461 _0414_
*462 _0415_
*463 _0416_
*464 _0417_
*465 _0418_
*466 _0419_
*467 _0420_
*468 _0421_
*469 _0422_
*470 _0423_
*471 _0424_
*472 _0425_
*473 _0426_
*474 _0427_
*475 _0428_
*476 _0429_
*477 _0430_
*478 _0431_
*479 _0432_
*480 _0433_
*481 _0434_
*482 _0435_
*483 _0436_
*484 _0437_
*485 _0438_
*486 _0439_
*487 _0440_
*488 _0441_
*489 _0442_
*490 _0443_
*491 _0444_
*492 _0445_
*493 _0446_
*494 _0447_
*495 _0448_
*496 _0449_
*497 _0450_
*498 _0451_
*499 _0452_
*500 _0453_
*501 _0454_
*502 _0455_
*503 _0456_
*504 _0457_
*505 _0458_
*506 _0459_
*507 _0460_
*508 _0461_
*509 _0462_
*510 _0463_
*511 _0464_
*512 _0465_
*513 _0466_
*514 _0467_
*515 _0468_
*516 _0469_
*517 _0470_
*518 _0471_
*519 _0472_
*520 _0473_
*521 _0474_
*522 _0475_
*523 _0476_
*524 _0477_
*525 _0478_
*526 _0479_
*527 _0480_
*528 _0481_
*529 _0482_
*530 _0483_
*531 _0484_
*532 _0485_
*533 _0486_
*534 _0487_
*535 _0488_
*536 _0489_
*537 _0490_
*538 _0491_
*539 _0492_
*540 _0493_
*541 _0494_
*542 _0495_
*543 _0496_
*544 _0497_
*545 _0498_
*546 _0499_
*547 _0500_
*548 _0501_
*549 _0502_
*550 _0503_
*551 _0504_
*552 _0505_
*553 _0506_
*554 _0507_
*555 _0508_
*556 _0509_
*557 _0510_
*558 _0511_
*559 _0512_
*560 _0513_
*561 _0514_
*562 _0515_
*563 _0516_
*564 _0517_
*565 _0518_
*566 _0519_
*567 _0520_
*568 _0521_
*569 _0522_
*570 _0523_
*571 _0524_
*572 _0525_
*573 _0526_
*574 _0527_
*575 _0528_
*576 _0529_
*577 _0530_
*578 _0531_
*579 _0532_
*580 _0533_
*581 _0534_
*582 _0535_
*583 _0536_
*584 _0537_
*585 _0538_
*586 _0539_
*587 _0540_
*588 _0541_
*589 _0542_
*590 _0543_
*591 _0544_
*592 _0545_
*593 _0546_
*594 _0547_
*595 _0548_
*596 _0549_
*597 _0550_
*598 _0551_
*599 _0552_
*600 _0553_
*601 _0554_
*602 _0555_
*603 _0556_
*604 _0557_
*605 _0558_
*606 _0559_
*607 _0560_
*608 _0561_
*609 _0562_
*610 _0563_
*611 _0564_
*612 _0565_
*613 _0566_
*614 _0567_
*615 _0568_
*616 _0569_
*617 _0570_
*618 _0571_
*619 _0572_
*620 _0573_
*621 _0574_
*622 _0575_
*623 _0576_
*624 _0577_
*625 _0578_
*626 _0579_
*627 _0580_
*628 _0581_
*629 _0582_
*630 _0583_
*631 _0584_
*632 _0585_
*633 _0586_
*634 _0587_
*635 _0588_
*636 _0589_
*637 _0590_
*638 _0591_
*639 _0592_
*640 _0593_
*641 _0594_
*642 _0595_
*643 _0596_
*644 _0597_
*645 _0598_
*646 _0599_
*647 _0600_
*648 _0601_
*649 _0602_
*650 _0603_
*651 _0604_
*652 _0605_
*653 _0606_
*654 _0607_
*655 _0608_
*656 _0609_
*657 _0610_
*658 _0611_
*659 _0612_
*660 _0613_
*661 _0614_
*662 _0615_
*663 _0616_
*664 _0617_
*665 _0618_
*666 _0619_
*667 _0620_
*668 _0621_
*669 _0622_
*670 _0623_
*671 _0624_
*672 _0625_
*673 _0626_
*674 _0627_
*675 _0628_
*676 _0629_
*677 _0630_
*678 _0631_
*679 _0632_
*680 _0633_
*681 _0634_
*682 _0635_
*683 _0636_
*684 _0637_
*685 _0638_
*686 _0639_
*687 _0640_
*688 _0641_
*689 _0642_
*690 _0643_
*691 _0644_
*692 _0645_
*693 _0646_
*694 _0647_
*695 _0648_
*696 _0649_
*697 _0650_
*698 _0651_
*699 _0652_
*700 _0653_
*701 _0654_
*702 _0655_
*703 _0656_
*704 _0657_
*705 _0658_
*706 _0659_
*707 _0660_
*708 _0661_
*709 _0662_
*710 _0663_
*711 _0664_
*712 _0665_
*713 _0666_
*714 _0667_
*715 _0668_
*716 _0669_
*717 _0670_
*718 _0671_
*719 _0672_
*720 _0673_
*721 _0674_
*722 _0675_
*723 _0676_
*724 _0677_
*725 _0678_
*726 _0679_
*727 _0680_
*728 _0681_
*729 _0682_
*730 _0683_
*731 _0684_
*732 _0685_
*733 _0686_
*734 _0687_
*735 _0688_
*736 _0689_
*737 _0690_
*738 _0691_
*739 _0692_
*740 _0693_
*741 _0694_
*742 _0695_
*743 _0696_
*744 _0697_
*745 _0698_
*746 _0699_
*747 _0700_
*748 _0701_
*749 _0702_
*750 _0703_
*751 _0704_
*752 _0705_
*753 _0706_
*754 _0707_
*755 _0708_
*756 _0709_
*757 _0710_
*758 _0711_
*759 _0712_
*760 clknet_0_clk_48
*761 clknet_4_0_0_clk_48
*762 clknet_4_10_0_clk_48
*763 clknet_4_11_0_clk_48
*764 clknet_4_12_0_clk_48
*765 clknet_4_13_0_clk_48
*766 clknet_4_14_0_clk_48
*767 clknet_4_15_0_clk_48
*768 clknet_4_1_0_clk_48
*769 clknet_4_2_0_clk_48
*770 clknet_4_3_0_clk_48
*771 clknet_4_4_0_clk_48
*772 clknet_4_5_0_clk_48
*773 clknet_4_6_0_clk_48
*774 clknet_4_7_0_clk_48
*775 clknet_4_8_0_clk_48
*776 clknet_4_9_0_clk_48
*777 handshake_latch\[0\]
*778 handshake_latch\[1\]
*779 net1
*780 net10
*781 net11
*782 net12
*783 net13
*784 net14
*785 net15
*786 net16
*787 net17
*788 net18
*789 net19
*790 net2
*791 net20
*792 net21
*793 net22
*794 net23
*795 net24
*796 net25
*797 net26
*798 net27
*799 net28
*800 net29
*801 net3
*802 net30
*803 net31
*804 net32
*805 net33
*806 net34
*807 net35
*808 net36
*809 net37
*810 net38
*811 net39
*812 net4
*813 net40
*814 net41
*815 net42
*816 net43
*817 net44
*818 net45
*819 net46
*820 net47
*821 net48
*822 net49
*823 net5
*824 net50
*825 net51
*826 net52
*827 net53
*828 net54
*829 net55
*830 net56
*831 net57
*832 net58
*833 net59
*834 net6
*835 net60
*836 net61
*837 net62
*838 net63
*839 net64
*840 net65
*841 net66
*842 net67
*843 net68
*844 net69
*845 net7
*846 net70
*847 net71
*848 net72
*849 net73
*850 net74
*851 net75
*852 net76
*853 net77
*854 net78
*855 net8
*856 net9
*857 recv\.clk_rcvr\.cntr\[0\]
*858 recv\.clk_rcvr\.cntr\[1\]
*859 recv\.clk_rcvr\.i
*860 recv\.clk_rcvr\.prev_i
*861 recv\.d_filter\.r\[0\]
*862 recv\.d_filter\.r\[1\]
*863 recv\.d_filter\.r\[2\]
*864 recv\.destuffer\.data\[0\]
*865 recv\.destuffer\.data\[1\]
*866 recv\.destuffer\.data\[2\]
*867 recv\.destuffer\.data\[3\]
*868 recv\.destuffer\.data\[4\]
*869 recv\.destuffer\.data\[5\]
*870 recv\.destuffer\.data\[6\]
*871 recv\.nrzi_decoder\.prev_i
*872 recv\.reset_detect\.cntr\[0\]
*873 recv\.reset_detect\.cntr\[10\]
*874 recv\.reset_detect\.cntr\[11\]
*875 recv\.reset_detect\.cntr\[12\]
*876 recv\.reset_detect\.cntr\[13\]
*877 recv\.reset_detect\.cntr\[14\]
*878 recv\.reset_detect\.cntr\[15\]
*879 recv\.reset_detect\.cntr\[16\]
*880 recv\.reset_detect\.cntr\[17\]
*881 recv\.reset_detect\.cntr\[18\]
*882 recv\.reset_detect\.cntr\[1\]
*883 recv\.reset_detect\.cntr\[2\]
*884 recv\.reset_detect\.cntr\[3\]
*885 recv\.reset_detect\.cntr\[4\]
*886 recv\.reset_detect\.cntr\[5\]
*887 recv\.reset_detect\.cntr\[6\]
*888 recv\.reset_detect\.cntr\[7\]
*889 recv\.reset_detect\.cntr\[8\]
*890 recv\.reset_detect\.cntr\[9\]
*891 recv\.se0_filter\.r\[0\]
*892 recv\.se0_filter\.r\[1\]
*893 recv\.se0_filter\.r\[2\]
*894 recv\.se0_filter\.r\[3\]
*895 recv\.se0_filter\.r\[4\]
*896 recv\.short_idle_counter\[0\]
*897 recv\.short_idle_counter\[1\]
*898 recv\.short_idle_counter\[2\]
*899 recv\.sm\.clear_shift
*900 recv\.sm\.crc16\.next\[10\]
*901 recv\.sm\.crc16\.next\[11\]
*902 recv\.sm\.crc16\.next\[12\]
*903 recv\.sm\.crc16\.next\[13\]
*904 recv\.sm\.crc16\.next\[14\]
*905 recv\.sm\.crc16\.next\[1\]
*906 recv\.sm\.crc16\.next\[3\]
*907 recv\.sm\.crc16\.next\[4\]
*908 recv\.sm\.crc16\.next\[5\]
*909 recv\.sm\.crc16\.next\[6\]
*910 recv\.sm\.crc16\.next\[7\]
*911 recv\.sm\.crc16\.next\[8\]
*912 recv\.sm\.crc16\.next\[9\]
*913 recv\.sm\.crc16\.out
*914 recv\.sm\.crc16\.r\[14\]
*915 recv\.sm\.crc16\.r\[1\]
*916 recv\.sm\.crc16\.rst_n
*917 recv\.sm\.crc5\.next\[1\]
*918 recv\.sm\.crc5\.next\[3\]
*919 recv\.sm\.crc5\.next\[4\]
*920 recv\.sm\.crc5\.r\[1\]
*921 recv\.sm\.crc5\.r\[4\]
*922 recv\.sm\.shift_reg\[0\]
*923 recv\.sm\.shift_reg\[1\]
*924 recv\.sm\.shift_reg\[2\]
*925 recv\.sm\.shift_reg\[3\]
*926 recv\.sm\.shift_reg\[4\]
*927 recv\.sm\.shift_reg\[5\]
*928 recv\.sm\.shift_reg\[6\]
*929 recv\.sm\.shift_reg\[7\]
*930 recv\.sm\.state\[0\]
*931 recv\.sm\.state\[1\]
*932 recv\.sm\.state\[2\]
*933 recv\.sm\.xcrc16_ok
*934 recv\.sm\.xcrc5_ok
*935 recv\.sm\.xdata\[0\]
*936 recv\.sm\.xdata\[1\]
*937 recv\.sm\.xdata\[2\]
*938 recv\.sm\.xdata\[3\]
*939 recv\.sm\.xdata\[4\]
*940 recv\.sm\.xdata\[5\]
*941 recv\.sm\.xdata\[6\]
*942 recv\.sm\.xdata\[7\]
*943 recv\.sm\.xdatastrobe
*944 recv\.sm\.xpacket
*945 recv\.sm\.xpid\[0\]
*946 recv\.sm\.xpid\[1\]
*947 recv\.sm\.xpid\[2\]
*948 recv\.sm\.xpid\[3\]
*949 recv\.sync_detect\.data\[0\]
*950 recv\.sync_detect\.data\[1\]
*951 recv\.sync_detect\.data\[2\]
*952 recv\.sync_detect\.data\[3\]
*953 recv\.sync_detect\.data\[4\]
*954 recv\.sync_detect\.data\[5\]
*955 recv\.sync_detect\.data\[6\]
*956 recv_queue_0\[0\]
*957 recv_queue_0\[1\]
*958 recv_queue_0\[2\]
*959 recv_queue_0\[3\]
*960 recv_queue_0\[4\]
*961 recv_queue_0\[5\]
*962 recv_queue_0\[6\]
*963 recv_queue_0\[7\]
*964 recv_queue_0_valid
*965 recv_queue_1\[0\]
*966 recv_queue_1\[1\]
*967 recv_queue_1\[2\]
*968 recv_queue_1\[3\]
*969 recv_queue_1\[4\]
*970 recv_queue_1\[5\]
*971 recv_queue_1\[6\]
*972 recv_queue_1\[7\]
*973 recv_queue_1_valid
*974 state\[0\]
*975 state\[1\]
*976 state\[2\]
*977 state\[3\]
*978 state\[4\]
*979 state\[6\]
*980 state\[7\]
*981 token_timeout\[0\]
*982 token_timeout\[1\]
*983 token_timeout\[2\]
*984 token_timeout\[3\]
*985 token_timeout\[4\]
*986 token_timeout\[5\]
*987 token_timeout\[6\]
*988 tx\.bit_stuff_counter\[0\]
*989 tx\.bit_stuff_counter\[1\]
*990 tx\.bit_stuff_counter\[2\]
*991 tx\.crc_enabled
*992 tx\.crc_out
*993 tx\.data\[0\]
*994 tx\.data\[1\]
*995 tx\.data\[2\]
*996 tx\.data\[3\]
*997 tx\.data\[4\]
*998 tx\.data\[5\]
*999 tx\.data\[6\]
*1000 tx\.data\[7\]
*1001 tx\.last_j
*1002 tx\.send_crc16
*1003 tx\.state\[0\]
*1004 tx\.state\[1\]
*1005 tx\.state\[2\]
*1006 tx\.transmit
*1007 tx\.tx_clock\[0\]
*1008 tx\.tx_clock\[1\]
*1009 tx\.tx_crc\.next\[10\]
*1010 tx\.tx_crc\.next\[11\]
*1011 tx\.tx_crc\.next\[12\]
*1012 tx\.tx_crc\.next\[13\]
*1013 tx\.tx_crc\.next\[14\]
*1014 tx\.tx_crc\.next\[1\]
*1015 tx\.tx_crc\.next\[3\]
*1016 tx\.tx_crc\.next\[4\]
*1017 tx\.tx_crc\.next\[5\]
*1018 tx\.tx_crc\.next\[6\]
*1019 tx\.tx_crc\.next\[7\]
*1020 tx\.tx_crc\.next\[8\]
*1021 tx\.tx_crc\.next\[9\]
*1022 tx\.tx_crc\.r\[14\]
*1023 tx\.tx_crc\.r\[1\]
*1024 tx\.tx_crc\.rst_n
*1025 tx\.tx_data\[0\]
*1026 tx\.tx_data\[1\]
*1027 tx\.tx_data\[2\]
*1028 tx\.tx_data\[3\]
*1029 tx\.tx_data\[4\]
*1030 tx\.tx_data\[5\]
*1031 tx\.tx_data\[6\]
*1032 tx\.tx_data\[7\]
*1033 tx\.tx_data\[8\]
*1034 tx\.update_crc16
*1035 ANTENNA_0
*1036 ANTENNA_1
*1037 FILLER_0_110
*1038 FILLER_0_113
*1039 FILLER_0_121
*1040 FILLER_0_126
*1041 FILLER_0_133
*1042 FILLER_0_139
*1043 FILLER_0_148
*1044 FILLER_0_160
*1045 FILLER_0_173
*1046 FILLER_0_185
*1047 FILLER_0_19
*1048 FILLER_0_193
*1049 FILLER_0_197
*1050 FILLER_0_203
*1051 FILLER_0_215
*1052 FILLER_0_223
*1053 FILLER_0_225
*1054 FILLER_0_233
*1055 FILLER_0_244
*1056 FILLER_0_253
*1057 FILLER_0_265
*1058 FILLER_0_27
*1059 FILLER_0_273
*1060 FILLER_0_279
*1061 FILLER_0_281
*1062 FILLER_0_293
*1063 FILLER_0_305
*1064 FILLER_0_319
*1065 FILLER_0_33
*1066 FILLER_0_331
*1067 FILLER_0_335
*1068 FILLER_0_337
*1069 FILLER_0_342
*1070 FILLER_0_349
*1071 FILLER_0_45
*1072 FILLER_0_53
*1073 FILLER_0_57
*1074 FILLER_0_63
*1075 FILLER_0_7
*1076 FILLER_0_75
*1077 FILLER_0_83
*1078 FILLER_0_85
*1079 FILLER_0_93
*1080 FILLER_0_98
*1081 FILLER_10_112
*1082 FILLER_10_124
*1083 FILLER_10_131
*1084 FILLER_10_139
*1085 FILLER_10_141
*1086 FILLER_10_145
*1087 FILLER_10_149
*1088 FILLER_10_15
*1089 FILLER_10_155
*1090 FILLER_10_176
*1091 FILLER_10_188
*1092 FILLER_10_192
*1093 FILLER_10_197
*1094 FILLER_10_206
*1095 FILLER_10_215
*1096 FILLER_10_228
*1097 FILLER_10_238
*1098 FILLER_10_246
*1099 FILLER_10_263
*1100 FILLER_10_27
*1101 FILLER_10_274
*1102 FILLER_10_278
*1103 FILLER_10_287
*1104 FILLER_10_29
*1105 FILLER_10_294
*1106 FILLER_10_298
*1107 FILLER_10_3
*1108 FILLER_10_303
*1109 FILLER_10_307
*1110 FILLER_10_317
*1111 FILLER_10_340
*1112 FILLER_10_347
*1113 FILLER_10_41
*1114 FILLER_10_53
*1115 FILLER_10_62
*1116 FILLER_10_74
*1117 FILLER_10_82
*1118 FILLER_10_85
*1119 FILLER_10_97
*1120 FILLER_11_106
*1121 FILLER_11_118
*1122 FILLER_11_126
*1123 FILLER_11_130
*1124 FILLER_11_135
*1125 FILLER_11_143
*1126 FILLER_11_149
*1127 FILLER_11_15
*1128 FILLER_11_156
*1129 FILLER_11_163
*1130 FILLER_11_167
*1131 FILLER_11_176
*1132 FILLER_11_184
*1133 FILLER_11_196
*1134 FILLER_11_200
*1135 FILLER_11_205
*1136 FILLER_11_211
*1137 FILLER_11_215
*1138 FILLER_11_223
*1139 FILLER_11_241
*1140 FILLER_11_247
*1141 FILLER_11_258
*1142 FILLER_11_27
*1143 FILLER_11_272
*1144 FILLER_11_291
*1145 FILLER_11_3
*1146 FILLER_11_316
*1147 FILLER_11_330
*1148 FILLER_11_345
*1149 FILLER_11_39
*1150 FILLER_11_51
*1151 FILLER_11_55
*1152 FILLER_11_57
*1153 FILLER_11_69
*1154 FILLER_11_81
*1155 FILLER_11_93
*1156 FILLER_11_99
*1157 FILLER_12_109
*1158 FILLER_12_11
*1159 FILLER_12_115
*1160 FILLER_12_136
*1161 FILLER_12_141
*1162 FILLER_12_145
*1163 FILLER_12_152
*1164 FILLER_12_17
*1165 FILLER_12_180
*1166 FILLER_12_188
*1167 FILLER_12_197
*1168 FILLER_12_209
*1169 FILLER_12_221
*1170 FILLER_12_229
*1171 FILLER_12_237
*1172 FILLER_12_24
*1173 FILLER_12_249
*1174 FILLER_12_253
*1175 FILLER_12_264
*1176 FILLER_12_272
*1177 FILLER_12_276
*1178 FILLER_12_281
*1179 FILLER_12_290
*1180 FILLER_12_298
*1181 FILLER_12_3
*1182 FILLER_12_306
*1183 FILLER_12_316
*1184 FILLER_12_324
*1185 FILLER_12_341
*1186 FILLER_12_38
*1187 FILLER_12_48
*1188 FILLER_12_60
*1189 FILLER_12_72
*1190 FILLER_12_76
*1191 FILLER_12_85
*1192 FILLER_13_108
*1193 FILLER_13_117
*1194 FILLER_13_128
*1195 FILLER_13_154
*1196 FILLER_13_158
*1197 FILLER_13_164
*1198 FILLER_13_176
*1199 FILLER_13_187
*1200 FILLER_13_194
*1201 FILLER_13_206
*1202 FILLER_13_218
*1203 FILLER_13_225
*1204 FILLER_13_229
*1205 FILLER_13_238
*1206 FILLER_13_250
*1207 FILLER_13_262
*1208 FILLER_13_266
*1209 FILLER_13_27
*1210 FILLER_13_275
*1211 FILLER_13_279
*1212 FILLER_13_289
*1213 FILLER_13_296
*1214 FILLER_13_3
*1215 FILLER_13_304
*1216 FILLER_13_310
*1217 FILLER_13_316
*1218 FILLER_13_325
*1219 FILLER_13_333
*1220 FILLER_13_337
*1221 FILLER_13_349
*1222 FILLER_13_52
*1223 FILLER_13_57
*1224 FILLER_13_81
*1225 FILLER_13_87
*1226 FILLER_14_116
*1227 FILLER_14_126
*1228 FILLER_14_136
*1229 FILLER_14_147
*1230 FILLER_14_153
*1231 FILLER_14_164
*1232 FILLER_14_175
*1233 FILLER_14_182
*1234 FILLER_14_194
*1235 FILLER_14_197
*1236 FILLER_14_219
*1237 FILLER_14_231
*1238 FILLER_14_24
*1239 FILLER_14_243
*1240 FILLER_14_251
*1241 FILLER_14_259
*1242 FILLER_14_275
*1243 FILLER_14_279
*1244 FILLER_14_29
*1245 FILLER_14_296
*1246 FILLER_14_303
*1247 FILLER_14_307
*1248 FILLER_14_309
*1249 FILLER_14_321
*1250 FILLER_14_34
*1251 FILLER_14_343
*1252 FILLER_14_351
*1253 FILLER_14_47
*1254 FILLER_14_74
*1255 FILLER_14_82
*1256 FILLER_14_85
*1257 FILLER_14_93
*1258 FILLER_15_105
*1259 FILLER_15_111
*1260 FILLER_15_117
*1261 FILLER_15_124
*1262 FILLER_15_136
*1263 FILLER_15_144
*1264 FILLER_15_150
*1265 FILLER_15_157
*1266 FILLER_15_165
*1267 FILLER_15_173
*1268 FILLER_15_185
*1269 FILLER_15_206
*1270 FILLER_15_214
*1271 FILLER_15_222
*1272 FILLER_15_225
*1273 FILLER_15_237
*1274 FILLER_15_249
*1275 FILLER_15_270
*1276 FILLER_15_278
*1277 FILLER_15_288
*1278 FILLER_15_296
*1279 FILLER_15_308
*1280 FILLER_15_32
*1281 FILLER_15_320
*1282 FILLER_15_332
*1283 FILLER_15_337
*1284 FILLER_15_349
*1285 FILLER_15_45
*1286 FILLER_15_53
*1287 FILLER_15_57
*1288 FILLER_15_63
*1289 FILLER_15_7
*1290 FILLER_15_75
*1291 FILLER_15_79
*1292 FILLER_15_89
*1293 FILLER_16_103
*1294 FILLER_16_107
*1295 FILLER_16_119
*1296 FILLER_16_131
*1297 FILLER_16_139
*1298 FILLER_16_141
*1299 FILLER_16_15
*1300 FILLER_16_153
*1301 FILLER_16_165
*1302 FILLER_16_177
*1303 FILLER_16_192
*1304 FILLER_16_20
*1305 FILLER_16_205
*1306 FILLER_16_215
*1307 FILLER_16_221
*1308 FILLER_16_242
*1309 FILLER_16_250
*1310 FILLER_16_253
*1311 FILLER_16_259
*1312 FILLER_16_264
*1313 FILLER_16_277
*1314 FILLER_16_297
*1315 FILLER_16_3
*1316 FILLER_16_305
*1317 FILLER_16_309
*1318 FILLER_16_321
*1319 FILLER_16_339
*1320 FILLER_16_351
*1321 FILLER_16_38
*1322 FILLER_16_50
*1323 FILLER_16_62
*1324 FILLER_16_74
*1325 FILLER_16_82
*1326 FILLER_16_85
*1327 FILLER_16_97
*1328 FILLER_17_109
*1329 FILLER_17_129
*1330 FILLER_17_141
*1331 FILLER_17_149
*1332 FILLER_17_155
*1333 FILLER_17_167
*1334 FILLER_17_169
*1335 FILLER_17_181
*1336 FILLER_17_193
*1337 FILLER_17_202
*1338 FILLER_17_215
*1339 FILLER_17_223
*1340 FILLER_17_225
*1341 FILLER_17_231
*1342 FILLER_17_252
*1343 FILLER_17_274
*1344 FILLER_17_297
*1345 FILLER_17_3
*1346 FILLER_17_309
*1347 FILLER_17_32
*1348 FILLER_17_321
*1349 FILLER_17_332
*1350 FILLER_17_343
*1351 FILLER_17_351
*1352 FILLER_17_44
*1353 FILLER_17_57
*1354 FILLER_17_82
*1355 FILLER_17_97
*1356 FILLER_18_100
*1357 FILLER_18_106
*1358 FILLER_18_11
*1359 FILLER_18_123
*1360 FILLER_18_135
*1361 FILLER_18_139
*1362 FILLER_18_16
*1363 FILLER_18_161
*1364 FILLER_18_177
*1365 FILLER_18_185
*1366 FILLER_18_192
*1367 FILLER_18_197
*1368 FILLER_18_205
*1369 FILLER_18_217
*1370 FILLER_18_225
*1371 FILLER_18_238
*1372 FILLER_18_24
*1373 FILLER_18_250
*1374 FILLER_18_256
*1375 FILLER_18_268
*1376 FILLER_18_288
*1377 FILLER_18_3
*1378 FILLER_18_300
*1379 FILLER_18_325
*1380 FILLER_18_345
*1381 FILLER_18_38
*1382 FILLER_18_50
*1383 FILLER_18_58
*1384 FILLER_18_80
*1385 FILLER_18_88
*1386 FILLER_19_101
*1387 FILLER_19_109
*1388 FILLER_19_113
*1389 FILLER_19_125
*1390 FILLER_19_149
*1391 FILLER_19_157
*1392 FILLER_19_165
*1393 FILLER_19_174
*1394 FILLER_19_185
*1395 FILLER_19_195
*1396 FILLER_19_207
*1397 FILLER_19_215
*1398 FILLER_19_220
*1399 FILLER_19_225
*1400 FILLER_19_236
*1401 FILLER_19_248
*1402 FILLER_19_262
*1403 FILLER_19_274
*1404 FILLER_19_281
*1405 FILLER_19_289
*1406 FILLER_19_3
*1407 FILLER_19_301
*1408 FILLER_19_315
*1409 FILLER_19_329
*1410 FILLER_19_335
*1411 FILLER_19_34
*1412 FILLER_19_344
*1413 FILLER_19_352
*1414 FILLER_19_47
*1415 FILLER_19_55
*1416 FILLER_19_57
*1417 FILLER_19_65
*1418 FILLER_19_88
*1419 FILLER_19_9
*1420 FILLER_1_107
*1421 FILLER_1_111
*1422 FILLER_1_116
*1423 FILLER_1_12
*1424 FILLER_1_124
*1425 FILLER_1_146
*1426 FILLER_1_158
*1427 FILLER_1_166
*1428 FILLER_1_169
*1429 FILLER_1_174
*1430 FILLER_1_199
*1431 FILLER_1_208
*1432 FILLER_1_215
*1433 FILLER_1_223
*1434 FILLER_1_225
*1435 FILLER_1_239
*1436 FILLER_1_24
*1437 FILLER_1_251
*1438 FILLER_1_258
*1439 FILLER_1_270
*1440 FILLER_1_278
*1441 FILLER_1_281
*1442 FILLER_1_293
*1443 FILLER_1_305
*1444 FILLER_1_317
*1445 FILLER_1_329
*1446 FILLER_1_335
*1447 FILLER_1_337
*1448 FILLER_1_349
*1449 FILLER_1_36
*1450 FILLER_1_48
*1451 FILLER_1_52
*1452 FILLER_1_60
*1453 FILLER_1_72
*1454 FILLER_1_95
*1455 FILLER_20_122
*1456 FILLER_20_134
*1457 FILLER_20_15
*1458 FILLER_20_161
*1459 FILLER_20_175
*1460 FILLER_20_187
*1461 FILLER_20_195
*1462 FILLER_20_200
*1463 FILLER_20_21
*1464 FILLER_20_212
*1465 FILLER_20_216
*1466 FILLER_20_221
*1467 FILLER_20_231
*1468 FILLER_20_245
*1469 FILLER_20_251
*1470 FILLER_20_263
*1471 FILLER_20_27
*1472 FILLER_20_271
*1473 FILLER_20_284
*1474 FILLER_20_296
*1475 FILLER_20_3
*1476 FILLER_20_300
*1477 FILLER_20_304
*1478 FILLER_20_309
*1479 FILLER_20_319
*1480 FILLER_20_325
*1481 FILLER_20_342
*1482 FILLER_20_350
*1483 FILLER_20_38
*1484 FILLER_20_48
*1485 FILLER_20_60
*1486 FILLER_20_67
*1487 FILLER_20_80
*1488 FILLER_20_93
*1489 FILLER_21_100
*1490 FILLER_21_108
*1491 FILLER_21_11
*1492 FILLER_21_119
*1493 FILLER_21_131
*1494 FILLER_21_144
*1495 FILLER_21_150
*1496 FILLER_21_155
*1497 FILLER_21_162
*1498 FILLER_21_172
*1499 FILLER_21_198
*1500 FILLER_21_206
*1501 FILLER_21_218
*1502 FILLER_21_225
*1503 FILLER_21_233
*1504 FILLER_21_242
*1505 FILLER_21_251
*1506 FILLER_21_255
*1507 FILLER_21_263
*1508 FILLER_21_275
*1509 FILLER_21_279
*1510 FILLER_21_281
*1511 FILLER_21_289
*1512 FILLER_21_295
*1513 FILLER_21_299
*1514 FILLER_21_3
*1515 FILLER_21_310
*1516 FILLER_21_318
*1517 FILLER_21_325
*1518 FILLER_21_33
*1519 FILLER_21_332
*1520 FILLER_21_337
*1521 FILLER_21_349
*1522 FILLER_21_41
*1523 FILLER_21_48
*1524 FILLER_21_61
*1525 FILLER_21_65
*1526 FILLER_21_77
*1527 FILLER_21_89
*1528 FILLER_22_106
*1529 FILLER_22_123
*1530 FILLER_22_131
*1531 FILLER_22_139
*1532 FILLER_22_141
*1533 FILLER_22_15
*1534 FILLER_22_153
*1535 FILLER_22_165
*1536 FILLER_22_187
*1537 FILLER_22_195
*1538 FILLER_22_205
*1539 FILLER_22_209
*1540 FILLER_22_231
*1541 FILLER_22_237
*1542 FILLER_22_243
*1543 FILLER_22_251
*1544 FILLER_22_263
*1545 FILLER_22_27
*1546 FILLER_22_272
*1547 FILLER_22_280
*1548 FILLER_22_286
*1549 FILLER_22_29
*1550 FILLER_22_294
*1551 FILLER_22_3
*1552 FILLER_22_304
*1553 FILLER_22_309
*1554 FILLER_22_317
*1555 FILLER_22_333
*1556 FILLER_22_340
*1557 FILLER_22_352
*1558 FILLER_22_41
*1559 FILLER_22_64
*1560 FILLER_22_80
*1561 FILLER_22_85
*1562 FILLER_22_97
*1563 FILLER_23_102
*1564 FILLER_23_108
*1565 FILLER_23_123
*1566 FILLER_23_134
*1567 FILLER_23_140
*1568 FILLER_23_149
*1569 FILLER_23_160
*1570 FILLER_23_169
*1571 FILLER_23_177
*1572 FILLER_23_188
*1573 FILLER_23_194
*1574 FILLER_23_202
*1575 FILLER_23_211
*1576 FILLER_23_223
*1577 FILLER_23_225
*1578 FILLER_23_245
*1579 FILLER_23_252
*1580 FILLER_23_264
*1581 FILLER_23_276
*1582 FILLER_23_281
*1583 FILLER_23_289
*1584 FILLER_23_293
*1585 FILLER_23_3
*1586 FILLER_23_304
*1587 FILLER_23_31
*1588 FILLER_23_314
*1589 FILLER_23_328
*1590 FILLER_23_345
*1591 FILLER_23_40
*1592 FILLER_23_46
*1593 FILLER_23_51
*1594 FILLER_23_55
*1595 FILLER_23_57
*1596 FILLER_23_65
*1597 FILLER_23_72
*1598 FILLER_23_82
*1599 FILLER_23_9
*1600 FILLER_23_94
*1601 FILLER_24_106
*1602 FILLER_24_11
*1603 FILLER_24_123
*1604 FILLER_24_130
*1605 FILLER_24_138
*1606 FILLER_24_141
*1607 FILLER_24_158
*1608 FILLER_24_168
*1609 FILLER_24_180
*1610 FILLER_24_187
*1611 FILLER_24_195
*1612 FILLER_24_207
*1613 FILLER_24_215
*1614 FILLER_24_227
*1615 FILLER_24_237
*1616 FILLER_24_24
*1617 FILLER_24_249
*1618 FILLER_24_253
*1619 FILLER_24_265
*1620 FILLER_24_289
*1621 FILLER_24_293
*1622 FILLER_24_3
*1623 FILLER_24_304
*1624 FILLER_24_309
*1625 FILLER_24_319
*1626 FILLER_24_341
*1627 FILLER_24_348
*1628 FILLER_24_352
*1629 FILLER_24_38
*1630 FILLER_24_51
*1631 FILLER_24_63
*1632 FILLER_24_7
*1633 FILLER_24_71
*1634 FILLER_24_80
*1635 FILLER_25_106
*1636 FILLER_25_120
*1637 FILLER_25_132
*1638 FILLER_25_146
*1639 FILLER_25_158
*1640 FILLER_25_166
*1641 FILLER_25_176
*1642 FILLER_25_186
*1643 FILLER_25_192
*1644 FILLER_25_200
*1645 FILLER_25_209
*1646 FILLER_25_217
*1647 FILLER_25_223
*1648 FILLER_25_225
*1649 FILLER_25_240
*1650 FILLER_25_252
*1651 FILLER_25_264
*1652 FILLER_25_276
*1653 FILLER_25_281
*1654 FILLER_25_296
*1655 FILLER_25_307
*1656 FILLER_25_329
*1657 FILLER_25_335
*1658 FILLER_25_345
*1659 FILLER_25_35
*1660 FILLER_25_43
*1661 FILLER_25_47
*1662 FILLER_25_55
*1663 FILLER_25_57
*1664 FILLER_25_6
*1665 FILLER_25_69
*1666 FILLER_25_86
*1667 FILLER_25_94
*1668 FILLER_26_115
*1669 FILLER_26_125
*1670 FILLER_26_137
*1671 FILLER_26_141
*1672 FILLER_26_149
*1673 FILLER_26_157
*1674 FILLER_26_16
*1675 FILLER_26_174
*1676 FILLER_26_185
*1677 FILLER_26_193
*1678 FILLER_26_197
*1679 FILLER_26_205
*1680 FILLER_26_233
*1681 FILLER_26_24
*1682 FILLER_26_245
*1683 FILLER_26_251
*1684 FILLER_26_258
*1685 FILLER_26_270
*1686 FILLER_26_282
*1687 FILLER_26_291
*1688 FILLER_26_3
*1689 FILLER_26_300
*1690 FILLER_26_309
*1691 FILLER_26_313
*1692 FILLER_26_323
*1693 FILLER_26_345
*1694 FILLER_26_38
*1695 FILLER_26_50
*1696 FILLER_26_62
*1697 FILLER_26_74
*1698 FILLER_26_82
*1699 FILLER_26_85
*1700 FILLER_26_89
*1701 FILLER_26_9
*1702 FILLER_26_94
*1703 FILLER_27_108
*1704 FILLER_27_119
*1705 FILLER_27_127
*1706 FILLER_27_150
*1707 FILLER_27_164
*1708 FILLER_27_176
*1709 FILLER_27_188
*1710 FILLER_27_202
*1711 FILLER_27_215
*1712 FILLER_27_223
*1713 FILLER_27_231
*1714 FILLER_27_237
*1715 FILLER_27_258
*1716 FILLER_27_269
*1717 FILLER_27_277
*1718 FILLER_27_281
*1719 FILLER_27_289
*1720 FILLER_27_299
*1721 FILLER_27_3
*1722 FILLER_27_305
*1723 FILLER_27_311
*1724 FILLER_27_32
*1725 FILLER_27_331
*1726 FILLER_27_335
*1727 FILLER_27_337
*1728 FILLER_27_349
*1729 FILLER_27_40
*1730 FILLER_27_52
*1731 FILLER_27_57
*1732 FILLER_27_79
*1733 FILLER_27_86
*1734 FILLER_27_94
*1735 FILLER_28_110
*1736 FILLER_28_122
*1737 FILLER_28_128
*1738 FILLER_28_136
*1739 FILLER_28_145
*1740 FILLER_28_15
*1741 FILLER_28_153
*1742 FILLER_28_160
*1743 FILLER_28_164
*1744 FILLER_28_169
*1745 FILLER_28_183
*1746 FILLER_28_195
*1747 FILLER_28_197
*1748 FILLER_28_226
*1749 FILLER_28_236
*1750 FILLER_28_246
*1751 FILLER_28_253
*1752 FILLER_28_260
*1753 FILLER_28_27
*1754 FILLER_28_270
*1755 FILLER_28_282
*1756 FILLER_28_29
*1757 FILLER_28_294
*1758 FILLER_28_3
*1759 FILLER_28_300
*1760 FILLER_28_304
*1761 FILLER_28_312
*1762 FILLER_28_323
*1763 FILLER_28_327
*1764 FILLER_28_348
*1765 FILLER_28_352