* NGSPICE file created from usb.ext - technology: sky130A

* Black-box entry subcircuit for sky130_fd_sc_hd__decap_6 abstract view
.subckt sky130_fd_sc_hd__decap_6 VGND VNB VPB VPWR
.ends

* Black-box entry subcircuit for sky130_fd_sc_hd__tapvpwrvgnd_1 abstract view
.subckt sky130_fd_sc_hd__tapvpwrvgnd_1 VGND VPWR
.ends

* Black-box entry subcircuit for sky130_fd_sc_hd__fill_2 abstract view
.subckt sky130_fd_sc_hd__fill_2 VGND VNB VPB VPWR
.ends

* Black-box entry subcircuit for sky130_ef_sc_hd__decap_12 abstract view
.subckt sky130_ef_sc_hd__decap_12 VGND VPWR VPB VNB
.ends

* Black-box entry subcircuit for sky130_fd_sc_hd__decap_8 abstract view
.subckt sky130_fd_sc_hd__decap_8 VGND VNB VPB VPWR
.ends

* Black-box entry subcircuit for sky130_fd_sc_hd__decap_4 abstract view
.subckt sky130_fd_sc_hd__decap_4 VGND VNB VPB VPWR
.ends

* Black-box entry subcircuit for sky130_fd_sc_hd__o311ai_1 abstract view
.subckt sky130_fd_sc_hd__o311ai_1 A1 A2 A3 B1 C1 VGND VNB VPB VPWR Y
.ends

* Black-box entry subcircuit for sky130_fd_sc_hd__clkbuf_2 abstract view
.subckt sky130_fd_sc_hd__clkbuf_2 A VGND VNB VPB VPWR X
.ends

* Black-box entry subcircuit for sky130_fd_sc_hd__dfrtp_1 abstract view
.subckt sky130_fd_sc_hd__dfrtp_1 CLK D RESET_B VGND VNB VPB VPWR Q
.ends

* Black-box entry subcircuit for sky130_fd_sc_hd__nor2_1 abstract view
.subckt sky130_fd_sc_hd__nor2_1 A B VGND VNB VPB VPWR Y
.ends

* Black-box entry subcircuit for sky130_fd_sc_hd__a31o_1 abstract view
.subckt sky130_fd_sc_hd__a31o_1 A1 A2 A3 B1 VGND VNB VPB VPWR X
.ends

* Black-box entry subcircuit for sky130_fd_sc_hd__dfxtp_1 abstract view
.subckt sky130_fd_sc_hd__dfxtp_1 CLK D VGND VNB VPB VPWR Q
.ends

* Black-box entry subcircuit for sky130_fd_sc_hd__or2b_1 abstract view
.subckt sky130_fd_sc_hd__or2b_1 A B_N VGND VNB VPB VPWR X
.ends

* Black-box entry subcircuit for sky130_fd_sc_hd__mux2_1 abstract view
.subckt sky130_fd_sc_hd__mux2_1 A0 A1 S VGND VNB VPB VPWR X
.ends

* Black-box entry subcircuit for sky130_fd_sc_hd__and4bb_1 abstract view
.subckt sky130_fd_sc_hd__and4bb_1 A_N B_N C D VGND VNB VPB VPWR X
.ends

* Black-box entry subcircuit for sky130_fd_sc_hd__o21ai_1 abstract view
.subckt sky130_fd_sc_hd__o21ai_1 A1 A2 B1 VGND VNB VPB VPWR Y
.ends

* Black-box entry subcircuit for sky130_fd_sc_hd__nor4b_1 abstract view
.subckt sky130_fd_sc_hd__nor4b_1 A B C D_N VGND VNB VPB VPWR Y
.ends

* Black-box entry subcircuit for sky130_fd_sc_hd__nand4_1 abstract view
.subckt sky130_fd_sc_hd__nand4_1 A B C D VGND VNB VPB VPWR Y
.ends

* Black-box entry subcircuit for sky130_fd_sc_hd__or2_2 abstract view
.subckt sky130_fd_sc_hd__or2_2 A B VGND VNB VPB VPWR X
.ends

* Black-box entry subcircuit for sky130_fd_sc_hd__and2b_1 abstract view
.subckt sky130_fd_sc_hd__and2b_1 A_N B VGND VNB VPB VPWR X
.ends

* Black-box entry subcircuit for sky130_fd_sc_hd__a21oi_1 abstract view
.subckt sky130_fd_sc_hd__a21oi_1 A1 A2 B1 VGND VNB VPB VPWR Y
.ends

* Black-box entry subcircuit for sky130_fd_sc_hd__o221a_1 abstract view
.subckt sky130_fd_sc_hd__o221a_1 A1 A2 B1 B2 C1 VGND VNB VPB VPWR X
.ends

* Black-box entry subcircuit for sky130_fd_sc_hd__fill_1 abstract view
.subckt sky130_fd_sc_hd__fill_1 VGND VNB VPB VPWR
.ends

* Black-box entry subcircuit for sky130_fd_sc_hd__nand3_2 abstract view
.subckt sky130_fd_sc_hd__nand3_2 A B C VGND VNB VPB VPWR Y
.ends

* Black-box entry subcircuit for sky130_fd_sc_hd__o31ai_1 abstract view
.subckt sky130_fd_sc_hd__o31ai_1 A1 A2 A3 B1 VGND VNB VPB VPWR Y
.ends

* Black-box entry subcircuit for sky130_fd_sc_hd__decap_3 abstract view
.subckt sky130_fd_sc_hd__decap_3 VGND VNB VPB VPWR
.ends

* Black-box entry subcircuit for sky130_fd_sc_hd__a21o_1 abstract view
.subckt sky130_fd_sc_hd__a21o_1 A1 A2 B1 VGND VNB VPB VPWR X
.ends

* Black-box entry subcircuit for sky130_fd_sc_hd__buf_2 abstract view
.subckt sky130_fd_sc_hd__buf_2 A VGND VNB VPB VPWR X
.ends

* Black-box entry subcircuit for sky130_fd_sc_hd__dfstp_1 abstract view
.subckt sky130_fd_sc_hd__dfstp_1 CLK D SET_B VGND VNB VPB VPWR Q
.ends

* Black-box entry subcircuit for sky130_fd_sc_hd__o21a_1 abstract view
.subckt sky130_fd_sc_hd__o21a_1 A1 A2 B1 VGND VNB VPB VPWR X
.ends

* Black-box entry subcircuit for sky130_fd_sc_hd__clkbuf_1 abstract view
.subckt sky130_fd_sc_hd__clkbuf_1 A VGND VNB VPB VPWR X
.ends

* Black-box entry subcircuit for sky130_fd_sc_hd__and3_1 abstract view
.subckt sky130_fd_sc_hd__and3_1 A B C VGND VNB VPB VPWR X
.ends

* Black-box entry subcircuit for sky130_fd_sc_hd__xnor2_1 abstract view
.subckt sky130_fd_sc_hd__xnor2_1 A B VGND VNB VPB VPWR Y
.ends

* Black-box entry subcircuit for sky130_fd_sc_hd__nand2_1 abstract view
.subckt sky130_fd_sc_hd__nand2_1 A B VGND VNB VPB VPWR Y
.ends

* Black-box entry subcircuit for sky130_fd_sc_hd__o31a_1 abstract view
.subckt sky130_fd_sc_hd__o31a_1 A1 A2 A3 B1 VGND VNB VPB VPWR X
.ends

* Black-box entry subcircuit for sky130_fd_sc_hd__a21bo_1 abstract view
.subckt sky130_fd_sc_hd__a21bo_1 A1 A2 B1_N VGND VNB VPB VPWR X
.ends

* Black-box entry subcircuit for sky130_fd_sc_hd__xor2_1 abstract view
.subckt sky130_fd_sc_hd__xor2_1 A B VGND VNB VPB VPWR X
.ends

* Black-box entry subcircuit for sky130_fd_sc_hd__nand4b_4 abstract view
.subckt sky130_fd_sc_hd__nand4b_4 A_N B C D VGND VNB VPB VPWR Y
.ends

* Black-box entry subcircuit for sky130_fd_sc_hd__and2_1 abstract view
.subckt sky130_fd_sc_hd__and2_1 A B VGND VNB VPB VPWR X
.ends

* Black-box entry subcircuit for sky130_fd_sc_hd__nand3_1 abstract view
.subckt sky130_fd_sc_hd__nand3_1 A B C VGND VNB VPB VPWR Y
.ends

* Black-box entry subcircuit for sky130_fd_sc_hd__a22oi_1 abstract view
.subckt sky130_fd_sc_hd__a22oi_1 A1 A2 B1 B2 VGND VNB VPB VPWR Y
.ends

* Black-box entry subcircuit for sky130_fd_sc_hd__or3_1 abstract view
.subckt sky130_fd_sc_hd__or3_1 A B C VGND VNB VPB VPWR X
.ends

* Black-box entry subcircuit for sky130_fd_sc_hd__o211ai_1 abstract view
.subckt sky130_fd_sc_hd__o211ai_1 A1 A2 B1 C1 VGND VNB VPB VPWR Y
.ends

* Black-box entry subcircuit for sky130_fd_sc_hd__nand3b_1 abstract view
.subckt sky130_fd_sc_hd__nand3b_1 A_N B C VGND VNB VPB VPWR Y
.ends

* Black-box entry subcircuit for sky130_fd_sc_hd__dfrtp_2 abstract view
.subckt sky130_fd_sc_hd__dfrtp_2 CLK D RESET_B VGND VNB VPB VPWR Q
.ends

* Black-box entry subcircuit for sky130_fd_sc_hd__o22ai_4 abstract view
.subckt sky130_fd_sc_hd__o22ai_4 A1 A2 B1 B2 VGND VNB VPB VPWR Y
.ends

* Black-box entry subcircuit for sky130_fd_sc_hd__clkbuf_8 abstract view
.subckt sky130_fd_sc_hd__clkbuf_8 A VGND VNB VPB VPWR X
.ends

* Black-box entry subcircuit for sky130_fd_sc_hd__clkbuf_16 abstract view
.subckt sky130_fd_sc_hd__clkbuf_16 A VGND VNB VPB VPWR X
.ends

* Black-box entry subcircuit for sky130_fd_sc_hd__a31oi_1 abstract view
.subckt sky130_fd_sc_hd__a31oi_1 A1 A2 A3 B1 VGND VNB VPB VPWR Y
.ends

* Black-box entry subcircuit for sky130_fd_sc_hd__a32o_1 abstract view
.subckt sky130_fd_sc_hd__a32o_1 A1 A2 A3 B1 B2 VGND VNB VPB VPWR X
.ends

* Black-box entry subcircuit for sky130_fd_sc_hd__dlymetal6s2s_1 abstract view
.subckt sky130_fd_sc_hd__dlymetal6s2s_1 A VGND VNB VPB VPWR X
.ends

* Black-box entry subcircuit for sky130_fd_sc_hd__a22o_1 abstract view
.subckt sky130_fd_sc_hd__a22o_1 A1 A2 B1 B2 VGND VNB VPB VPWR X
.ends

* Black-box entry subcircuit for sky130_fd_sc_hd__inv_2 abstract view
.subckt sky130_fd_sc_hd__inv_2 A VGND VNB VPB VPWR Y
.ends

* Black-box entry subcircuit for sky130_fd_sc_hd__a32oi_1 abstract view
.subckt sky130_fd_sc_hd__a32oi_1 A1 A2 A3 B1 B2 VGND VNB VPB VPWR Y
.ends

* Black-box entry subcircuit for sky130_fd_sc_hd__a211o_1 abstract view
.subckt sky130_fd_sc_hd__a211o_1 A1 A2 B1 C1 VGND VNB VPB VPWR X
.ends

* Black-box entry subcircuit for sky130_fd_sc_hd__or4_2 abstract view
.subckt sky130_fd_sc_hd__or4_2 A B C D VGND VNB VPB VPWR X
.ends

* Black-box entry subcircuit for sky130_fd_sc_hd__o21bai_1 abstract view
.subckt sky130_fd_sc_hd__o21bai_1 A1 A2 B1_N VGND VNB VPB VPWR Y
.ends

* Black-box entry subcircuit for sky130_fd_sc_hd__nand3b_4 abstract view
.subckt sky130_fd_sc_hd__nand3b_4 A_N B C VGND VNB VPB VPWR Y
.ends

* Black-box entry subcircuit for sky130_fd_sc_hd__a311o_1 abstract view
.subckt sky130_fd_sc_hd__a311o_1 A1 A2 A3 B1 C1 VGND VNB VPB VPWR X
.ends

* Black-box entry subcircuit for sky130_fd_sc_hd__a2111o_1 abstract view
.subckt sky130_fd_sc_hd__a2111o_1 A1 A2 B1 C1 D1 VGND VNB VPB VPWR X
.ends

* Black-box entry subcircuit for sky130_fd_sc_hd__o2111a_1 abstract view
.subckt sky130_fd_sc_hd__o2111a_1 A1 A2 B1 C1 D1 VGND VNB VPB VPWR X
.ends

* Black-box entry subcircuit for sky130_fd_sc_hd__nor4_2 abstract view
.subckt sky130_fd_sc_hd__nor4_2 A B C D VGND VNB VPB VPWR Y
.ends

* Black-box entry subcircuit for sky130_fd_sc_hd__o211a_1 abstract view
.subckt sky130_fd_sc_hd__o211a_1 A1 A2 B1 C1 VGND VNB VPB VPWR X
.ends

* Black-box entry subcircuit for sky130_fd_sc_hd__and4_1 abstract view
.subckt sky130_fd_sc_hd__and4_1 A B C D VGND VNB VPB VPWR X
.ends

* Black-box entry subcircuit for sky130_fd_sc_hd__o2111ai_1 abstract view
.subckt sky130_fd_sc_hd__o2111ai_1 A1 A2 B1 C1 D1 VGND VNB VPB VPWR Y
.ends

* Black-box entry subcircuit for sky130_fd_sc_hd__and3b_1 abstract view
.subckt sky130_fd_sc_hd__and3b_1 A_N B C VGND VNB VPB VPWR X
.ends

* Black-box entry subcircuit for sky130_fd_sc_hd__o22a_1 abstract view
.subckt sky130_fd_sc_hd__o22a_1 A1 A2 B1 B2 VGND VNB VPB VPWR X
.ends

* Black-box entry subcircuit for sky130_fd_sc_hd__nor2_2 abstract view
.subckt sky130_fd_sc_hd__nor2_2 A B VGND VNB VPB VPWR Y
.ends

* Black-box entry subcircuit for sky130_fd_sc_hd__o21ba_1 abstract view
.subckt sky130_fd_sc_hd__o21ba_1 A1 A2 B1_N VGND VNB VPB VPWR X
.ends

* Black-box entry subcircuit for sky130_fd_sc_hd__nand4_2 abstract view
.subckt sky130_fd_sc_hd__nand4_2 A B C D VGND VNB VPB VPWR Y
.ends

* Black-box entry subcircuit for sky130_fd_sc_hd__buf_6 abstract view
.subckt sky130_fd_sc_hd__buf_6 A VGND VNB VPB VPWR X
.ends

* Black-box entry subcircuit for sky130_fd_sc_hd__o221ai_1 abstract view
.subckt sky130_fd_sc_hd__o221ai_1 A1 A2 B1 B2 C1 VGND VNB VPB VPWR Y
.ends

* Black-box entry subcircuit for sky130_fd_sc_hd__o311a_1 abstract view
.subckt sky130_fd_sc_hd__o311a_1 A1 A2 A3 B1 C1 VGND VNB VPB VPWR X
.ends

* Black-box entry subcircuit for sky130_fd_sc_hd__or4b_1 abstract view
.subckt sky130_fd_sc_hd__or4b_1 A B C D_N VGND VNB VPB VPWR X
.ends

* Black-box entry subcircuit for sky130_fd_sc_hd__nor3_1 abstract view
.subckt sky130_fd_sc_hd__nor3_1 A B C VGND VNB VPB VPWR Y
.ends

* Black-box entry subcircuit for sky130_fd_sc_hd__a2bb2o_1 abstract view
.subckt sky130_fd_sc_hd__a2bb2o_1 A1_N A2_N B1 B2 VGND VNB VPB VPWR X
.ends

* Black-box entry subcircuit for sky130_fd_sc_hd__o2bb2ai_1 abstract view
.subckt sky130_fd_sc_hd__o2bb2ai_1 A1_N A2_N B1 B2 VGND VNB VPB VPWR Y
.ends

* Black-box entry subcircuit for sky130_fd_sc_hd__a221o_1 abstract view
.subckt sky130_fd_sc_hd__a221o_1 A1 A2 B1 B2 C1 VGND VNB VPB VPWR X
.ends

* Black-box entry subcircuit for sky130_fd_sc_hd__o211ai_2 abstract view
.subckt sky130_fd_sc_hd__o211ai_2 A1 A2 B1 C1 VGND VNB VPB VPWR Y
.ends

* Black-box entry subcircuit for sky130_fd_sc_hd__a21oi_4 abstract view
.subckt sky130_fd_sc_hd__a21oi_4 A1 A2 B1 VGND VNB VPB VPWR Y
.ends

* Black-box entry subcircuit for sky130_fd_sc_hd__or4_1 abstract view
.subckt sky130_fd_sc_hd__or4_1 A B C D VGND VNB VPB VPWR X
.ends

* Black-box entry subcircuit for sky130_fd_sc_hd__nor3b_1 abstract view
.subckt sky130_fd_sc_hd__nor3b_1 A B C_N VGND VNB VPB VPWR Y
.ends

* Black-box entry subcircuit for sky130_fd_sc_hd__nor3_2 abstract view
.subckt sky130_fd_sc_hd__nor3_2 A B C VGND VNB VPB VPWR Y
.ends

* Black-box entry subcircuit for sky130_fd_sc_hd__o41a_1 abstract view
.subckt sky130_fd_sc_hd__o41a_1 A1 A2 A3 A4 B1 VGND VNB VPB VPWR X
.ends

* Black-box entry subcircuit for sky130_fd_sc_hd__nand4_4 abstract view
.subckt sky130_fd_sc_hd__nand4_4 A B C D VGND VNB VPB VPWR Y
.ends

* Black-box entry subcircuit for sky130_fd_sc_hd__o32a_1 abstract view
.subckt sky130_fd_sc_hd__o32a_1 A1 A2 A3 B1 B2 VGND VNB VPB VPWR X
.ends

* Black-box entry subcircuit for sky130_fd_sc_hd__and2b_2 abstract view
.subckt sky130_fd_sc_hd__and2b_2 A_N B VGND VNB VPB VPWR X
.ends

* Black-box entry subcircuit for sky130_fd_sc_hd__and4b_1 abstract view
.subckt sky130_fd_sc_hd__and4b_1 A_N B C D VGND VNB VPB VPWR X
.ends

* Black-box entry subcircuit for sky130_fd_sc_hd__nand4b_1 abstract view
.subckt sky130_fd_sc_hd__nand4b_1 A_N B C D VGND VNB VPB VPWR Y
.ends

* Black-box entry subcircuit for sky130_fd_sc_hd__nor4_1 abstract view
.subckt sky130_fd_sc_hd__nor4_1 A B C D VGND VNB VPB VPWR Y
.ends

* Black-box entry subcircuit for sky130_fd_sc_hd__or4bb_1 abstract view
.subckt sky130_fd_sc_hd__or4bb_1 A B C_N D_N VGND VNB VPB VPWR X
.ends

* Black-box entry subcircuit for sky130_fd_sc_hd__nand2b_2 abstract view
.subckt sky130_fd_sc_hd__nand2b_2 A_N B VGND VNB VPB VPWR Y
.ends

* Black-box entry subcircuit for sky130_fd_sc_hd__a21oi_2 abstract view
.subckt sky130_fd_sc_hd__a21oi_2 A1 A2 B1 VGND VNB VPB VPWR Y
.ends

* Black-box entry subcircuit for sky130_fd_sc_hd__a21boi_2 abstract view
.subckt sky130_fd_sc_hd__a21boi_2 A1 A2 B1_N VGND VNB VPB VPWR Y
.ends

* Black-box entry subcircuit for sky130_fd_sc_hd__o21ai_2 abstract view
.subckt sky130_fd_sc_hd__o21ai_2 A1 A2 B1 VGND VNB VPB VPWR Y
.ends

* Black-box entry subcircuit for sky130_fd_sc_hd__or3b_1 abstract view
.subckt sky130_fd_sc_hd__or3b_1 A B C_N VGND VNB VPB VPWR X
.ends

* Black-box entry subcircuit for sky130_fd_sc_hd__clkinv_2 abstract view
.subckt sky130_fd_sc_hd__clkinv_2 A VGND VNB VPB VPWR Y
.ends

* Black-box entry subcircuit for sky130_fd_sc_hd__nand2_2 abstract view
.subckt sky130_fd_sc_hd__nand2_2 A B VGND VNB VPB VPWR Y
.ends

* Black-box entry subcircuit for sky130_fd_sc_hd__dlygate4sd3_1 abstract view
.subckt sky130_fd_sc_hd__dlygate4sd3_1 A VGND VNB VPB VPWR X
.ends

* Black-box entry subcircuit for sky130_fd_sc_hd__clkbuf_4 abstract view
.subckt sky130_fd_sc_hd__clkbuf_4 A VGND VNB VPB VPWR X
.ends

* Black-box entry subcircuit for sky130_fd_sc_hd__nor4b_2 abstract view
.subckt sky130_fd_sc_hd__nor4b_2 A B C D_N VGND VNB VPB VPWR Y
.ends

* Black-box entry subcircuit for sky130_fd_sc_hd__or2_1 abstract view
.subckt sky130_fd_sc_hd__or2_1 A B VGND VNB VPB VPWR X
.ends

* Black-box entry subcircuit for sky130_fd_sc_hd__o2bb2a_1 abstract view
.subckt sky130_fd_sc_hd__o2bb2a_1 A1_N A2_N B1 B2 VGND VNB VPB VPWR X
.ends

* Black-box entry subcircuit for sky130_fd_sc_hd__dfxtp_2 abstract view
.subckt sky130_fd_sc_hd__dfxtp_2 CLK D VGND VNB VPB VPWR Q
.ends

* Black-box entry subcircuit for sky130_fd_sc_hd__a41o_1 abstract view
.subckt sky130_fd_sc_hd__a41o_1 A1 A2 A3 A4 B1 VGND VNB VPB VPWR X
.ends

* Black-box entry subcircuit for sky130_fd_sc_hd__a2111oi_1 abstract view
.subckt sky130_fd_sc_hd__a2111oi_1 A1 A2 B1 C1 D1 VGND VNB VPB VPWR Y
.ends

* Black-box entry subcircuit for sky130_fd_sc_hd__o31a_2 abstract view
.subckt sky130_fd_sc_hd__o31a_2 A1 A2 A3 B1 VGND VNB VPB VPWR X
.ends

* Black-box entry subcircuit for sky130_fd_sc_hd__o21ai_4 abstract view
.subckt sky130_fd_sc_hd__o21ai_4 A1 A2 B1 VGND VNB VPB VPWR Y
.ends

* Black-box entry subcircuit for sky130_fd_sc_hd__a31oi_2 abstract view
.subckt sky130_fd_sc_hd__a31oi_2 A1 A2 A3 B1 VGND VNB VPB VPWR Y
.ends

* Black-box entry subcircuit for sky130_fd_sc_hd__nand3b_2 abstract view
.subckt sky130_fd_sc_hd__nand3b_2 A_N B C VGND VNB VPB VPWR Y
.ends

* Black-box entry subcircuit for sky130_fd_sc_hd__o211ai_4 abstract view
.subckt sky130_fd_sc_hd__o211ai_4 A1 A2 B1 C1 VGND VNB VPB VPWR Y
.ends

* Black-box entry subcircuit for sky130_fd_sc_hd__diode_2 abstract view
.subckt sky130_fd_sc_hd__diode_2 DIODE VGND VNB VPB VPWR
.ends

* Black-box entry subcircuit for sky130_fd_sc_hd__a221oi_1 abstract view
.subckt sky130_fd_sc_hd__a221oi_1 A1 A2 B1 B2 C1 VGND VNB VPB VPWR Y
.ends

* Black-box entry subcircuit for sky130_fd_sc_hd__o21a_2 abstract view
.subckt sky130_fd_sc_hd__o21a_2 A1 A2 B1 VGND VNB VPB VPWR X
.ends

* Black-box entry subcircuit for sky130_fd_sc_hd__nor4_4 abstract view
.subckt sky130_fd_sc_hd__nor4_4 A B C D VGND VNB VPB VPWR Y
.ends

* Black-box entry subcircuit for sky130_fd_sc_hd__o221a_2 abstract view
.subckt sky130_fd_sc_hd__o221a_2 A1 A2 B1 B2 C1 VGND VNB VPB VPWR X
.ends

.subckt usb VGND VPWR clk_48 data_in[0] data_in[1] data_in[2] data_in[3] data_in[4]
+ data_in[5] data_in[6] data_in[7] data_in_valid data_out[0] data_out[1] data_out[2]
+ data_out[3] data_out[4] data_out[5] data_out[6] data_out[7] data_strobe data_toggle
+ direction_in endpoint[0] endpoint[1] endpoint[2] endpoint[3] handshake[0] handshake[1]
+ rst_n rx_j rx_se0 setup success transaction_active tx_en tx_j tx_se0 usb_address[0]
+ usb_address[1] usb_address[2] usb_address[3] usb_address[4] usb_address[5] usb_address[6]
+ usb_rst
XFILLER_39_288 VGND VGND VPWR VPWR sky130_fd_sc_hd__decap_6
XTAP_177 VGND VPWR sky130_fd_sc_hd__tapvpwrvgnd_1
XTAP_188 VGND VPWR sky130_fd_sc_hd__tapvpwrvgnd_1
XTAP_199 VGND VPWR sky130_fd_sc_hd__tapvpwrvgnd_1
XFILLER_52_29 VGND VGND VPWR VPWR sky130_fd_sc_hd__fill_2
XFILLER_10_317 VGND VGND VPWR VPWR sky130_fd_sc_hd__decap_6
XFILLER_7_7 VGND VPWR VPWR VGND sky130_ef_sc_hd__decap_12
XFILLER_45_214 VGND VGND VPWR VPWR sky130_fd_sc_hd__decap_8
XFILLER_26_85 VGND VGND VPWR VPWR sky130_fd_sc_hd__decap_4
XFILLER_26_74 VGND VGND VPWR VPWR sky130_fd_sc_hd__decap_8
XFILLER_9_137 VGND VPWR VPWR VGND sky130_ef_sc_hd__decap_12
XFILLER_36_258 VGND VPWR VPWR VGND sky130_ef_sc_hd__decap_12
X_1270_ _1357_/A _1278_/S _0859_/C _1269_/Y _0917_/X VGND VGND VPWR VPWR _1549_/D
+ sky130_fd_sc_hd__o311ai_1
XFILLER_51_228 VGND VGND VPWR VPWR sky130_fd_sc_hd__decap_8
Xrepeater60 repeater61/X VGND VGND VPWR VPWR repeater60/X sky130_fd_sc_hd__clkbuf_2
Xrepeater71 repeater72/X VGND VGND VPWR VPWR repeater71/X sky130_fd_sc_hd__clkbuf_2
X_1606_ _1626_/CLK _1606_/D repeater71/X VGND VGND VPWR VPWR _1606_/Q sky130_fd_sc_hd__dfrtp_1
X_0985_ _1360_/A _0985_/B VGND VGND VPWR VPWR _1366_/B sky130_fd_sc_hd__nor2_1
X_1537_ _1576_/CLK _1537_/D repeater61/X VGND VGND VPWR VPWR _1537_/Q sky130_fd_sc_hd__dfrtp_1
X_1399_ _0783_/A _0783_/B _1415_/C _1611_/Q VGND VGND VPWR VPWR _1399_/X sky130_fd_sc_hd__a31o_1
X_1468_ _1618_/CLK _1468_/D VGND VGND VPWR VPWR _1468_/Q sky130_fd_sc_hd__dfxtp_1
XFILLER_27_269 VGND VGND VPWR VPWR sky130_fd_sc_hd__decap_8
XFILLER_27_258 VGND VGND VPWR VPWR sky130_fd_sc_hd__decap_4
XFILLER_12_76 VGND VGND VPWR VPWR sky130_fd_sc_hd__decap_8
XFILLER_37_62 VGND VGND VPWR VPWR sky130_fd_sc_hd__decap_4
XFILLER_18_225 VGND VGND VPWR VPWR sky130_fd_sc_hd__fill_2
XFILLER_26_291 VGND VGND VPWR VPWR sky130_fd_sc_hd__decap_4
X_0770_ _1505_/Q _0752_/A VGND VGND VPWR VPWR _0943_/D sky130_fd_sc_hd__or2b_1
XFILLER_56_309 VGND VGND VPWR VPWR sky130_fd_sc_hd__fill_2
X_1322_ _1212_/X _1573_/Q _1333_/S VGND VGND VPWR VPWR _1323_/A sky130_fd_sc_hd__mux2_1
X_1253_ _1574_/Q _1577_/Q _1576_/Q _1253_/D VGND VGND VPWR VPWR _1255_/C sky130_fd_sc_hd__and4bb_1
X_1184_ _0915_/Y _1183_/Y _1210_/C VGND VGND VPWR VPWR _1524_/D sky130_fd_sc_hd__o21ai_1
XFILLER_32_283 VGND VPWR VPWR VGND sky130_ef_sc_hd__decap_12
X_0968_ _0968_/A _1033_/B _1537_/Q _1535_/Q VGND VGND VPWR VPWR _0968_/Y sky130_fd_sc_hd__nor4b_1
X_0899_ _0918_/C _1343_/S _0899_/C _1546_/Q VGND VGND VPWR VPWR _0899_/Y sky130_fd_sc_hd__nand4_1
XFILLER_59_169 VGND VPWR VPWR VGND sky130_ef_sc_hd__decap_12
XFILLER_59_125 VGND VPWR VPWR VGND sky130_ef_sc_hd__decap_12
XFILLER_15_206 VGND VGND VPWR VPWR sky130_fd_sc_hd__decap_4
XFILLER_23_31 VGND VGND VPWR VPWR sky130_fd_sc_hd__decap_4
XFILLER_58_180 VGND VPWR VPWR VGND sky130_ef_sc_hd__decap_12
XFILLER_48_94 VGND VPWR VPWR VGND sky130_ef_sc_hd__decap_12
XFILLER_0_57 VGND VGND VPWR VPWR sky130_fd_sc_hd__fill_2
X_0822_ _0822_/A _0822_/B VGND VGND VPWR VPWR _0918_/C sky130_fd_sc_hd__or2_2
XFILLER_9_44 VGND VPWR VPWR VGND sky130_ef_sc_hd__decap_12
XFILLER_9_66 VGND VGND VPWR VPWR sky130_fd_sc_hd__decap_6
X_0753_ _0753_/A _1509_/Q VGND VGND VPWR VPWR _0941_/A sky130_fd_sc_hd__or2b_1
XFILLER_50_3 VGND VPWR VPWR VGND sky130_ef_sc_hd__decap_12
X_1236_ _1269_/B _1567_/Q VGND VGND VPWR VPWR _1236_/X sky130_fd_sc_hd__and2b_1
X_1305_ _0918_/C _0938_/X _1565_/Q VGND VGND VPWR VPWR _1305_/Y sky130_fd_sc_hd__a21oi_1
X_1167_ _1165_/Y _1166_/X _1157_/X _1158_/X _1210_/C VGND VGND VPWR VPWR _1519_/D
+ sky130_fd_sc_hd__o221a_1
X_1098_ _1488_/Q _1506_/Q _1108_/S VGND VGND VPWR VPWR _1099_/A sky130_fd_sc_hd__mux2_1
XFILLER_12_209 VGND VPWR VPWR VGND sky130_ef_sc_hd__decap_12
XFILLER_20_231 VGND VGND VPWR VPWR sky130_fd_sc_hd__decap_4
XFILLER_43_301 VGND VGND VPWR VPWR sky130_fd_sc_hd__fill_2
XFILLER_34_85 VGND VGND VPWR VPWR sky130_fd_sc_hd__decap_4
XFILLER_7_202 VGND VGND VPWR VPWR sky130_fd_sc_hd__decap_6
XFILLER_50_62 VGND VGND VPWR VPWR sky130_fd_sc_hd__decap_6
XFILLER_7_257 VGND VGND VPWR VPWR sky130_fd_sc_hd__decap_4
XFILLER_38_139 VGND VGND VPWR VPWR sky130_fd_sc_hd__fill_1
X_1021_ _1458_/Q _1020_/X _1021_/S VGND VGND VPWR VPWR _1022_/A sky130_fd_sc_hd__mux2_1
X_0805_ _1580_/Q _1583_/Q _1584_/Q VGND VGND VPWR VPWR _0822_/B sky130_fd_sc_hd__nand3_2
X_0736_ _1537_/Q VGND VGND VPWR VPWR _1032_/B sky130_fd_sc_hd__clkbuf_2
X_1219_ _0843_/X _0857_/X _0860_/X _1218_/Y VGND VGND VPWR VPWR _1536_/D sky130_fd_sc_hd__o31ai_1
XFILLER_52_197 VGND VGND VPWR VPWR sky130_fd_sc_hd__decap_4
XFILLER_40_304 VGND VGND VPWR VPWR sky130_fd_sc_hd__decap_4
XFILLER_25_345 VGND VGND VPWR VPWR sky130_fd_sc_hd__decap_8
XFILLER_20_21 VGND VGND VPWR VPWR sky130_fd_sc_hd__decap_6
XFILLER_29_41 VGND VGND VPWR VPWR sky130_fd_sc_hd__fill_1
XFILLER_45_51 VGND VGND VPWR VPWR sky130_fd_sc_hd__decap_4
XFILLER_28_183 VGND VPWR VPWR VGND sky130_ef_sc_hd__decap_12
XFILLER_31_337 VGND VPWR VPWR VGND sky130_ef_sc_hd__decap_12
XTAP_348 VGND VPWR sky130_fd_sc_hd__tapvpwrvgnd_1
XTAP_337 VGND VPWR sky130_fd_sc_hd__tapvpwrvgnd_1
XTAP_326 VGND VPWR sky130_fd_sc_hd__tapvpwrvgnd_1
X_1570_ _1577_/CLK _1570_/D VGND VGND VPWR VPWR _1570_/Q sky130_fd_sc_hd__dfxtp_1
XTAP_315 VGND VPWR sky130_fd_sc_hd__tapvpwrvgnd_1
XTAP_304 VGND VPWR sky130_fd_sc_hd__tapvpwrvgnd_1
XFILLER_6_78 VGND VGND VPWR VPWR sky130_fd_sc_hd__decap_6
XTAP_359 VGND VPWR sky130_fd_sc_hd__tapvpwrvgnd_1
XFILLER_13_3 VGND VGND VPWR VPWR sky130_fd_sc_hd__decap_3
XFILLER_34_197 VGND VGND VPWR VPWR sky130_fd_sc_hd__decap_3
X_1004_ _1450_/Q _1449_/Q _1012_/S VGND VGND VPWR VPWR _1005_/A sky130_fd_sc_hd__mux2_1
XFILLER_22_304 VGND VGND VPWR VPWR sky130_fd_sc_hd__decap_4
XFILLER_1_208 VGND VGND VPWR VPWR sky130_fd_sc_hd__decap_4
X_0719_ _1603_/Q _1602_/Q _1610_/Q VGND VGND VPWR VPWR _0721_/C sky130_fd_sc_hd__a21o_1
XFILLER_13_304 VGND VGND VPWR VPWR sky130_fd_sc_hd__fill_1
XFILLER_15_32 VGND VGND VPWR VPWR sky130_fd_sc_hd__decap_4
XFILLER_17_109 VGND VGND VPWR VPWR sky130_fd_sc_hd__decap_3
XFILLER_25_120 VGND VPWR VPWR VGND sky130_ef_sc_hd__decap_12
XFILLER_40_156 VGND VPWR VPWR VGND sky130_ef_sc_hd__decap_12
XFILLER_13_337 VGND VPWR VPWR VGND sky130_ef_sc_hd__decap_12
XFILLER_25_186 VGND VGND VPWR VPWR sky130_fd_sc_hd__decap_6
Xoutput31 _1464_/Q VGND VGND VPWR VPWR data_strobe sky130_fd_sc_hd__buf_2
Xoutput42 _0935_/X VGND VGND VPWR VPWR tx_se0 sky130_fd_sc_hd__buf_2
XFILLER_48_289 VGND VGND VPWR VPWR sky130_fd_sc_hd__decap_4
XFILLER_48_245 VGND VGND VPWR VPWR sky130_fd_sc_hd__decap_6
XFILLER_16_131 VGND VGND VPWR VPWR sky130_fd_sc_hd__decap_8
XFILLER_16_153 VGND VPWR VPWR VGND sky130_ef_sc_hd__decap_12
X_1622_ _1625_/CLK _1622_/D repeater56/X VGND VGND VPWR VPWR _1622_/Q sky130_fd_sc_hd__dfrtp_1
XFILLER_31_189 VGND VGND VPWR VPWR sky130_fd_sc_hd__decap_6
XFILLER_39_212 VGND VPWR VPWR VGND sky130_ef_sc_hd__decap_12
XFILLER_39_201 VGND VGND VPWR VPWR sky130_fd_sc_hd__decap_4
XTAP_156 VGND VPWR sky130_fd_sc_hd__tapvpwrvgnd_1
XTAP_145 VGND VPWR sky130_fd_sc_hd__tapvpwrvgnd_1
XTAP_123 VGND VPWR sky130_fd_sc_hd__tapvpwrvgnd_1
XTAP_134 VGND VPWR sky130_fd_sc_hd__tapvpwrvgnd_1
XTAP_167 VGND VPWR sky130_fd_sc_hd__tapvpwrvgnd_1
XTAP_178 VGND VPWR sky130_fd_sc_hd__tapvpwrvgnd_1
XTAP_189 VGND VPWR sky130_fd_sc_hd__tapvpwrvgnd_1
X_1553_ _1578_/CLK _1553_/D repeater46/X VGND VGND VPWR VPWR _1553_/Q sky130_fd_sc_hd__dfstp_1
X_1484_ _1626_/CLK _1484_/D repeater72/X VGND VGND VPWR VPWR _1484_/Q sky130_fd_sc_hd__dfrtp_1
XFILLER_10_307 VGND VGND VPWR VPWR sky130_fd_sc_hd__fill_1
XFILLER_22_123 VGND VGND VPWR VPWR sky130_fd_sc_hd__decap_4
XFILLER_53_292 VGND VGND VPWR VPWR sky130_fd_sc_hd__decap_4
XFILLER_53_281 VGND VGND VPWR VPWR sky130_fd_sc_hd__decap_4
XFILLER_9_149 VGND VPWR VPWR VGND sky130_ef_sc_hd__decap_12
XFILLER_3_57 VGND VGND VPWR VPWR sky130_fd_sc_hd__fill_2
Xrepeater61 repeater69/X VGND VGND VPWR VPWR repeater61/X sky130_fd_sc_hd__clkbuf_2
Xrepeater50 _0932_/X VGND VGND VPWR VPWR repeater50/X sky130_fd_sc_hd__clkbuf_2
X_0984_ _1610_/Q _1458_/Q _0983_/Y VGND VGND VPWR VPWR _1020_/B sky130_fd_sc_hd__o21a_1
Xrepeater72 repeater73/X VGND VGND VPWR VPWR repeater72/X sky130_fd_sc_hd__clkbuf_2
X_1536_ _1597_/CLK _1536_/D repeater69/X VGND VGND VPWR VPWR _1536_/Q sky130_fd_sc_hd__dfrtp_1
X_1605_ _1626_/CLK _1605_/D repeater71/X VGND VGND VPWR VPWR _1605_/Q sky130_fd_sc_hd__dfrtp_1
XFILLER_59_307 VGND VGND VPWR VPWR sky130_fd_sc_hd__fill_1
X_1467_ _1532_/CLK _1467_/D repeater66/X VGND VGND VPWR VPWR _1467_/Q sky130_fd_sc_hd__dfrtp_1
XFILLER_27_215 VGND VGND VPWR VPWR sky130_fd_sc_hd__decap_8
X_1398_ _1398_/A VGND VGND VPWR VPWR _1398_/X sky130_fd_sc_hd__clkbuf_2
XFILLER_35_281 VGND VGND VPWR VPWR sky130_fd_sc_hd__decap_4
XFILLER_27_237 VGND VGND VPWR VPWR sky130_fd_sc_hd__fill_1
XFILLER_50_284 VGND VGND VPWR VPWR sky130_fd_sc_hd__decap_4
XFILLER_50_262 VGND VPWR VPWR VGND sky130_ef_sc_hd__decap_12
XFILLER_12_11 VGND VGND VPWR VPWR sky130_fd_sc_hd__decap_3
XFILLER_53_62 VGND VGND VPWR VPWR sky130_fd_sc_hd__decap_4
XFILLER_26_270 VGND VGND VPWR VPWR sky130_fd_sc_hd__decap_4
XFILLER_45_6 VGND VGND VPWR VPWR sky130_fd_sc_hd__decap_4
XFILLER_5_185 VGND VGND VPWR VPWR sky130_fd_sc_hd__decap_8
XFILLER_5_152 VGND VPWR VPWR VGND sky130_ef_sc_hd__decap_12
XFILLER_5_130 VGND VGND VPWR VPWR sky130_fd_sc_hd__fill_1
X_1321_ _1321_/A VGND VGND VPWR VPWR _1572_/D sky130_fd_sc_hd__clkbuf_1
X_1252_ _1252_/A _1252_/B _1575_/Q VGND VGND VPWR VPWR _1255_/B sky130_fd_sc_hd__and3_1
X_1183_ _1524_/Q _1183_/B VGND VGND VPWR VPWR _1183_/Y sky130_fd_sc_hd__xnor2_1
XFILLER_24_207 VGND VGND VPWR VPWR sky130_fd_sc_hd__decap_4
XFILLER_32_295 VGND VPWR VPWR VGND sky130_ef_sc_hd__decap_12
X_0967_ _0967_/A _0967_/B VGND VGND VPWR VPWR _1482_/D sky130_fd_sc_hd__nand2_1
XFILLER_59_137 VGND VGND VPWR VPWR sky130_fd_sc_hd__decap_3
XFILLER_58_29 VGND VPWR VPWR VGND sky130_ef_sc_hd__decap_12
X_1519_ _1625_/CLK _1519_/D repeater62/X VGND VGND VPWR VPWR _1519_/Q sky130_fd_sc_hd__dfrtp_1
X_0898_ _1429_/S VGND VGND VPWR VPWR _1343_/S sky130_fd_sc_hd__clkbuf_2
XFILLER_23_65 VGND VGND VPWR VPWR sky130_fd_sc_hd__decap_3
XFILLER_2_188 VGND VGND VPWR VPWR sky130_fd_sc_hd__fill_1
XFILLER_58_192 VGND VGND VPWR VPWR sky130_fd_sc_hd__decap_4
X_0752_ _0752_/A _1505_/Q VGND VGND VPWR VPWR _0942_/A sky130_fd_sc_hd__or2b_1
X_0821_ _1222_/A VGND VGND VPWR VPWR _0918_/B sky130_fd_sc_hd__clkbuf_2
XFILLER_14_251 VGND VGND VPWR VPWR sky130_fd_sc_hd__fill_1
XFILLER_43_3 VGND VGND VPWR VPWR sky130_fd_sc_hd__decap_4
X_1166_ _1518_/Q _1517_/Q _1152_/X _1168_/B VGND VGND VPWR VPWR _1166_/X sky130_fd_sc_hd__o31a_1
XFILLER_49_181 VGND VGND VPWR VPWR sky130_fd_sc_hd__decap_8
X_1235_ _1235_/A VGND VGND VPWR VPWR _1542_/D sky130_fd_sc_hd__clkbuf_1
XFILLER_37_332 VGND VGND VPWR VPWR sky130_fd_sc_hd__decap_4
X_1304_ _1260_/B _1260_/C _1564_/Q VGND VGND VPWR VPWR _1304_/X sky130_fd_sc_hd__a21bo_1
X_1097_ _1144_/S VGND VGND VPWR VPWR _1108_/S sky130_fd_sc_hd__buf_2
XFILLER_20_221 VGND VGND VPWR VPWR sky130_fd_sc_hd__decap_4
XFILLER_7_225 VGND VPWR VPWR VGND sky130_ef_sc_hd__decap_12
XFILLER_7_247 VGND VGND VPWR VPWR sky130_fd_sc_hd__decap_6
XFILLER_59_61 VGND VPWR VPWR VGND sky130_ef_sc_hd__decap_12
XFILLER_7_269 VGND VGND VPWR VPWR sky130_fd_sc_hd__decap_4
X_1020_ _1457_/Q _1020_/B VGND VGND VPWR VPWR _1020_/X sky130_fd_sc_hd__xor2_1
XFILLER_15_7 VGND VGND VPWR VPWR sky130_fd_sc_hd__decap_4
XFILLER_34_324 VGND VGND VPWR VPWR sky130_fd_sc_hd__decap_4
X_0804_ _1586_/Q _1585_/Q _1582_/Q _1581_/Q VGND VGND VPWR VPWR _0822_/A sky130_fd_sc_hd__nand4b_4
XFILLER_6_280 VGND VGND VPWR VPWR sky130_fd_sc_hd__decap_4
X_0735_ _0879_/A _1435_/Q VGND VGND VPWR VPWR _0735_/X sky130_fd_sc_hd__and2_1
XFILLER_52_121 VGND VPWR VPWR VGND sky130_ef_sc_hd__decap_12
X_1149_ _1149_/A VGND VGND VPWR VPWR _1150_/B sky130_fd_sc_hd__clkbuf_2
XFILLER_37_184 VGND VGND VPWR VPWR sky130_fd_sc_hd__decap_6
X_1218_ _0857_/A _0860_/A _1033_/B VGND VGND VPWR VPWR _1218_/Y sky130_fd_sc_hd__o21ai_1
XFILLER_25_335 VGND VGND VPWR VPWR sky130_fd_sc_hd__fill_1
XFILLER_40_349 VGND VGND VPWR VPWR sky130_fd_sc_hd__decap_4
XFILLER_40_316 VGND VGND VPWR VPWR sky130_fd_sc_hd__decap_8
XFILLER_29_53 VGND VGND VPWR VPWR sky130_fd_sc_hd__decap_3
XFILLER_45_30 VGND VGND VPWR VPWR sky130_fd_sc_hd__decap_4
XFILLER_31_349 VGND VGND VPWR VPWR sky130_fd_sc_hd__decap_4
XFILLER_28_195 VGND VGND VPWR VPWR sky130_fd_sc_hd__fill_1
XTAP_349 VGND VPWR sky130_fd_sc_hd__tapvpwrvgnd_1
XTAP_338 VGND VPWR sky130_fd_sc_hd__tapvpwrvgnd_1
XTAP_327 VGND VPWR sky130_fd_sc_hd__tapvpwrvgnd_1
XTAP_316 VGND VPWR sky130_fd_sc_hd__tapvpwrvgnd_1
XTAP_305 VGND VPWR sky130_fd_sc_hd__tapvpwrvgnd_1
X_1003_ _1003_/A VGND VGND VPWR VPWR _1449_/D sky130_fd_sc_hd__clkbuf_1
XFILLER_19_195 VGND VPWR VPWR VGND sky130_ef_sc_hd__decap_12
XFILLER_34_187 VGND VGND VPWR VPWR sky130_fd_sc_hd__decap_8
X_0718_ _1603_/Q _0922_/C _1458_/Q VGND VGND VPWR VPWR _0721_/B sky130_fd_sc_hd__nand3_1
XFILLER_13_316 VGND VGND VPWR VPWR sky130_fd_sc_hd__fill_1
XFILLER_13_349 VGND VGND VPWR VPWR sky130_fd_sc_hd__decap_4
XFILLER_25_132 VGND VGND VPWR VPWR sky130_fd_sc_hd__decap_8
XFILLER_25_176 VGND VGND VPWR VPWR sky130_fd_sc_hd__decap_4
XFILLER_40_168 VGND VPWR VPWR VGND sky130_ef_sc_hd__decap_12